  963.0000    306.7079     15.4910
     50.0000    306.7355     15.4241    -17.6118      7.0865
    151.5152    306.7916     15.2884    -18.5608      8.3609
    256.0606    306.8494     15.1486    -19.5098      9.6349
    363.6364    306.9088     15.0047    -19.5895      9.7258
    474.2424    306.9700     14.8568    -19.2817     10.2536
    587.8788    307.0328     14.7049    -18.4169     11.4072
    704.5454    307.0974     14.5489    -16.8020     11.0641
    824.2424    307.1636     14.3888    -15.8008     10.8763
    946.9697    307.2310     14.2253    -15.6562     11.0387
   1072.7273    307.2949     14.0640    -16.2481     11.2555
   1201.5151    307.4179     13.8126    -15.2293     11.6481
   1333.3333    307.8009     13.1742    -13.6681     11.7476
   1468.1819    308.4540     12.1452    -12.1139     12.0363
   1606.0608    309.2755     10.9481    -10.4917     11.7348
   1746.9697    310.2976      9.4391     -9.5643     10.1418
   1890.9092    311.7627      7.0703     -9.7021      9.7019
   2037.8787    313.0118      5.2197     -9.6265     11.0843
   2187.8787    313.3373      5.1380     -9.4828     11.5321
   2340.9092    313.5428      5.0480     -9.8895     11.1007
   2496.9697    313.7190      4.5873    -10.6540     11.4584
   2656.0605    314.7104      3.1792    -11.8240     11.8635
   2818.1816    315.6027      2.4634    -11.1482     12.1961
   2983.3335    315.9927      2.2896     -9.9759     12.5708
   3151.5151    316.1526      2.2594     -9.6282     12.8962
   3322.7275    316.2302      2.1752     -9.9284     13.3937
   3496.9697    316.2921      2.1454     -9.9816     13.5316
   3674.2424    316.3533      2.1241     -9.3626     13.1488
   3854.5454    316.4342      2.0048     -8.9690     12.7839
   4037.8789    316.4935      2.0044     -8.9519     12.8093
   4224.2427    316.5417      2.0668     -8.7093     12.3091
   4413.6367    316.5981      2.0916     -8.1847     11.8005
   4606.0610    316.6636      2.0738     -7.6567     11.6472
   4801.5156    316.7316      2.0481     -7.3724     11.0542
   5000.0000    316.8083      1.9825     -7.2531     11.1937
   5201.5156    317.1872      1.6577     -9.3780     11.5153
   5406.0605    319.0668      0.5768    -10.0117     12.3226
   5613.6367    320.9133      0.1014     -9.9676     14.6944
   5824.2427    323.1925      0.0752     -7.3224     11.7662
   6037.8789    324.0199      0.0680     -8.0186     11.2370
   6254.5454    324.2842      0.0745     -9.3026     10.9539
   6474.2427    324.5114      0.0767     -8.7963     10.1919
   6696.9697    324.5784      0.0798     -8.6190      9.6872
   6922.7271    324.6711      0.0874    -10.1412     10.2652
   7151.5151    324.9923      0.0843    -10.2369      9.3231
   7383.3335    325.2109      0.0867    -10.3490      8.9926
   7618.1816    325.5618      0.0670     -7.4598      9.1489
   7856.0615    325.8430      0.0540     -6.5891      9.4355
   8096.9702    326.3059      0.0440     -7.5000      8.4634
   8340.9092    326.8229      0.0409     -8.8901      9.3672
   8587.8789    327.5432      0.0329     -7.5459      8.2127
   8837.8799    327.9375      0.0319     -6.7103      7.4162
   9090.9102    328.5980      0.0271     -5.3543      8.1061
   9346.9707    329.6850      0.0204     -5.1312      6.7184
   9606.0605    330.3553      0.0170     -7.3928      7.3142
   9868.1816    330.6764      0.0158     -8.0333      6.9089
  10133.3330    331.6236      0.0128     -8.4416      8.3217
  10401.5146    332.2685      0.0111     -6.8196      9.1690
  10672.7266    333.5434      0.0094     -4.7500      9.6401
  10946.9697    334.2431      0.0084     -2.1347     10.5669
  11224.2422    334.3629      0.0080     -0.5223      8.9295
  11504.5449    334.9424      0.0078      0.2188      7.7945
  11787.8789    336.7801      0.0077      0.1903      9.6741
  12074.2422    338.9419      0.0059      1.5729     13.3881
  12363.6367    340.4922      0.0083      3.4244     14.5435
  12656.0615    344.0418      0.0128      3.1634     17.6863
  12951.5156    347.8155      0.0090      3.2909     15.2899
  13250.0010    357.5758      0.0062      2.9890      7.1472
  13551.5156    362.6051      0.0030     -0.1945      7.3178
  13856.0615    367.6858      0.0023     -6.3534     10.1682
  14163.6377    371.8156      0.0018     -4.8433     12.7240
  14474.2441    376.4720      0.0017     -4.1205     14.9436
  14787.8799    381.6331      0.0016     -4.6693     19.2424
  15104.5459    389.6586      0.0017     -3.0743     20.4862
  15424.2432    394.6840      0.0021     -0.7506     20.8124
  15746.9707    399.5751      0.0037     -1.3272     22.0722
  16072.7275    405.1859      0.0036     -1.3242     22.0742
  16401.5156    410.8488      0.0036     -1.3213     22.0762
  16733.3340    416.5640      0.0035     -1.3183     22.0782
  17068.1836    422.3314      0.0035     -1.3152     22.0802
  17406.0625    428.1510      0.0034     -1.3122     22.0822
  17746.9688    434.0227      0.0034     -1.3091     22.0843
  18090.9102    439.9467      0.0033     -1.3060     22.0863
  18437.8789    445.9228      0.0033     -1.3029     22.0884
  18787.8789    451.9511      0.0032     -1.2997     22.0905
  19140.9102    458.0317      0.0031     -1.2965     22.0926
  19496.9688    464.1644      0.0031     -1.2933     22.0948
  19856.0605    470.3493      0.0030     -1.2901     22.0969
  20218.1836    476.5864      0.0030     -1.2868     22.0991
  20583.3359    482.8757      0.0029     -1.2835     22.1013
  20951.5156    489.2172      0.0029     -1.2802     22.1035
  21322.7266    495.6109      0.0028     -1.2768     22.1057
  21696.9707    502.0568      0.0028     -1.2735     22.1080
  22074.2422    508.5548      0.0027     -1.2700     22.1103
  22454.5469    515.1052      0.0026     -1.2666     22.1126
  22837.8789    521.7076      0.0026     -1.2632     22.1149
  23224.2422    528.3622      0.0025     -1.2597     22.1172
  23613.6367    535.0691      0.0025     -1.2562     22.1195
  24006.0605    541.8281      0.0024     -1.2526     22.1219
  24401.5156    548.6394      0.0024     -1.2490     22.1243
  24800.0000    555.5028      0.0023     -1.2454     22.1266